api/Rede_CAI_teste_sem_trafos_Ajustada_VLN_Node.Txt

LINE-GROUND and LINE-LINE VOLTAGES BY BUS & NODE

Bus  Node    VLN (kV)   Angle      pu     Base kV    Node-Node   VLL (kV)  Angle      pu

3259 1       29.357 /_   -0.8   0.57781    88.000        1-2      50.84 /_   29.2   0.57773
   - 2       29.349 /_ -120.8   0.57765    88.000        2-3     50.834 /_  -90.8   0.57766
   - 3       29.353 /_  119.2   0.57774    88.000        3-1     50.848 /_  149.2   0.57782
2645 1       4.5872 /_  -31.8   0.57574    13.800        1-2     7.9456 /_   -1.8   0.57577
   - 2       4.5854 /_ -151.8   0.57552    13.800        2-3     7.9411 /_ -121.8   0.57545
   - 3       4.5855 /_   88.2   0.57553    13.800        3-1     7.9431 /_  118.2   0.57559
3256 1        4.589 /_  -31.7   0.57597    13.800        1-2     7.9487 /_   -1.8   0.57599
   - 2       4.5873 /_ -151.8   0.57576    13.800        2-3     7.9443 /_ -121.8   0.57568
   - 3       4.5873 /_   88.2   0.57576    13.800        3-1     7.9462 /_  118.3   0.57581
2221 1       4.5883 /_  -31.8   0.57588    13.800        1-2     7.9475 /_   -1.8    0.5759
   - 2       4.5866 /_ -151.8   0.57566    13.800        2-3     7.9431 /_ -121.8   0.57558
   - 3       4.5866 /_   88.2   0.57567    13.800        3-1      7.945 /_  118.2   0.57572
3257 1        2.287 /_  -45.4   0.28704    13.800        1-2     3.9611 /_  -15.4   0.28704
   - 2       2.2866 /_ -165.4   0.28699    13.800        2-3       3.96 /_ -135.4   0.28695
   - 3       2.2864 /_   74.6   0.28697    13.800        3-1     3.9609 /_  104.6   0.28702
927  1       2.2676 /_  -45.3   0.28461    13.800        1-2     3.9275 /_  -15.3    0.2846
   - 2       2.2672 /_ -165.3   0.28456    13.800        2-3     3.9264 /_ -135.3   0.28452
   - 3       2.2671 /_   74.7   0.28454    13.800        3-1     3.9273 /_  104.7   0.28459
1972 1       2.2869 /_  -45.4   0.28703    13.800        1-2     3.9609 /_  -15.4   0.28703
   - 2       2.2865 /_ -165.4   0.28698    13.800        2-3     3.9598 /_ -135.4   0.28694
   - 3       2.2864 /_   74.6   0.28696    13.800        3-1     3.9607 /_  104.6   0.28701
13 . 1       2.2867 /_  -45.4   0.28701    13.800        1-2     3.9606 /_  -15.4     0.287
   - 2       2.2863 /_ -165.4   0.28695    13.800        2-3     3.9594 /_ -135.4   0.28692
   - 3       2.2862 /_   74.6   0.28694    13.800        3-1     3.9604 /_  104.6   0.28698
436  1       2.2864 /_  -45.4   0.28697    13.800        1-2     3.9601 /_  -15.4   0.28696
   - 2        2.286 /_ -165.4   0.28692    13.800        2-3     3.9589 /_ -135.4   0.28688
   - 3       2.2859 /_   74.6    0.2869    13.800        3-1     3.9599 /_  104.6   0.28695
1100 1       2.2866 /_  -45.4     0.287    13.800        1-2     3.9605 /_  -15.4   0.28699
   - 2       2.2862 /_ -165.4   0.28695    13.800        2-3     3.9593 /_ -135.4   0.28691
   - 3       2.2861 /_   74.6   0.28693    13.800        3-1     3.9602 /_  104.6   0.28697
2922 1       4.5822 /_  -31.4   0.57511    13.800        1-2     7.9365 /_   -1.4   0.57511
   - 2       4.5812 /_ -151.4   0.57499    13.800        2-3     7.9338 /_ -121.4   0.57491
   - 3       4.5806 /_   88.6   0.57492    13.800        3-1      7.935 /_  118.6     0.575
3258 1       4.5836 /_  -31.4   0.57529    13.800        1-2      7.939 /_   -1.4   0.57529
   - 2       4.5826 /_ -151.4   0.57517    13.800        2-3     7.9363 /_ -121.4   0.57509
   - 3       4.5821 /_   88.6    0.5751    13.800        3-1     7.9374 /_  118.6   0.57518
2648 1       4.5859 /_  -31.8   0.57558    13.800        1-2     7.9433 /_   -1.8    0.5756
   - 2       4.5841 /_ -151.8   0.57535    13.800        2-3     7.9388 /_ -121.8   0.57528
   - 3       4.5842 /_   88.2   0.57537    13.800        3-1     7.9408 /_  118.2   0.57542
2223 1       4.5877 /_  -31.8   0.57581    13.800        1-2     7.9466 /_   -1.8   0.57584
   - 2        4.586 /_ -151.8    0.5756    13.800        2-3     7.9421 /_ -121.8   0.57552
   - 3        4.586 /_   88.2    0.5756    13.800        3-1      7.944 /_  118.2   0.57565
928  1       2.2031 /_  -45.3   0.27651    13.800        1-2     3.8158 /_  -15.3   0.27651
   - 2       2.2027 /_ -165.3   0.27646    13.800        2-3     3.8147 /_ -135.3   0.27643
   - 3       2.2026 /_   74.7   0.27645    13.800        3-1     3.8156 /_  104.7   0.27649
1973 1       2.2868 /_  -45.4   0.28702    13.800        1-2     3.9608 /_  -15.4   0.28701
   - 2       2.2864 /_ -165.4   0.28697    13.800        2-3     3.9596 /_ -135.4   0.28693
   - 3       2.2863 /_   74.6   0.28695    13.800        3-1     3.9606 /_  104.6     0.287
1101 1       2.2862 /_  -45.4   0.28694    13.800        1-2     3.9597 /_  -15.4   0.28694
   - 2       2.2858 /_ -165.4    0.2869    13.800        2-3     3.9587 /_ -135.4   0.28686
   - 3       2.2857 /_   74.6   0.28688    13.800        3-1     3.9595 /_  104.6   0.28692
2924 1       4.5807 /_  -31.4   0.57493    13.800        1-2     7.9339 /_   -1.4   0.57492
   - 2       4.5797 /_ -151.4    0.5748    13.800        2-3     7.9312 /_ -121.4   0.57472
   - 3       4.5791 /_   88.6   0.57473    13.800        3-1     7.9323 /_  118.6   0.57481
2647 1       4.5812 /_  -31.8   0.57499    13.800        1-2     7.9351 /_   -1.9   0.57501
   - 2       4.5792 /_ -151.9   0.57474    13.800        2-3     7.9305 /_ -121.9   0.57467
   - 3       4.5795 /_   88.2   0.57477    13.800        3-1     7.9327 /_  118.2   0.57483
2222 1       4.5858 /_  -31.8   0.57557    13.800        1-2     7.9432 /_   -1.9    0.5756
   - 2        4.584 /_ -151.9   0.57535    13.800        2-3     7.9387 /_ -121.9   0.57527
   - 3       4.5841 /_   88.2   0.57535    13.800        3-1     7.9406 /_  118.2   0.57541
929  1       2.1977 /_  -45.3   0.27583    13.800        1-2     3.8064 /_  -15.3   0.27582
   - 2       2.1973 /_ -165.3   0.27578    13.800        2-3     3.8052 /_ -135.3   0.27574
   - 3       2.1971 /_   74.7   0.27576    13.800        3-1     3.8061 /_  104.7   0.27581
1975 1       2.2867 /_  -45.4     0.287    13.800        1-2     3.9605 /_  -15.4   0.28699
   - 2       2.2863 /_ -165.4   0.28695    13.800        2-3     3.9594 /_ -135.4   0.28691
   - 3       2.2861 /_   74.6   0.28693    13.800        3-1     3.9603 /_  104.6   0.28698
12 . 1       2.2859 /_  -45.4   0.28691    13.800        1-2     3.9592 /_  -15.4    0.2869
   - 2       2.2855 /_ -165.4   0.28685    13.800        2-3      3.958 /_ -135.4   0.28681
   - 3       2.2853 /_   74.6   0.28684    13.800        3-1      3.959 /_  104.6   0.28688
434  1       2.2849 /_  -45.5   0.28678    13.800        1-2     3.9574 /_  -15.5   0.28676
   - 2       2.2843 /_ -165.5   0.28671    13.800        2-3     3.9561 /_ -135.5   0.28667
   - 3       2.2842 /_   74.6    0.2867    13.800        3-1     3.9571 /_  104.6   0.28674
1103 1       2.2856 /_  -45.4   0.28687    13.800        1-2     3.9587 /_  -15.4   0.28686
   - 2       2.2853 /_ -165.4   0.28683    13.800        2-3     3.9577 /_ -135.4   0.28679
   - 3       2.2851 /_   74.6   0.28681    13.800        3-1     3.9585 /_  104.6   0.28685
2923 1       4.5751 /_  -31.5   0.57423    13.800        1-2     7.9242 /_   -1.5   0.57422
   - 2        4.574 /_ -151.5   0.57409    13.800        2-3     7.9214 /_ -121.5   0.57402
   - 3       4.5735 /_   88.5   0.57402    13.800        3-1     7.9226 /_  118.5    0.5741
2646 1       4.5802 /_  -31.8   0.57487    13.800        1-2     7.9334 /_   -1.9   0.57488
   - 2       4.5782 /_ -151.9   0.57461    13.800        2-3     7.9287 /_ -121.9   0.57454
   - 3       4.5784 /_   88.1   0.57465    13.800        3-1     7.9309 /_  118.2    0.5747
2227 1       4.5857 /_  -31.8   0.57555    13.800        1-2     7.9429 /_   -1.9   0.57557
   - 2       4.5838 /_ -151.9   0.57532    13.800        2-3     7.9383 /_ -121.9   0.57524
   - 3       4.5839 /_   88.1   0.57533    13.800        3-1     7.9403 /_  118.2   0.57538
931  1       2.1027 /_  -45.3   0.26391    13.800        1-2     3.6419 /_  -15.4   0.26391
   - 2       2.1023 /_ -165.4   0.26387    13.800        2-3     3.6409 /_ -135.3   0.26383
   - 3       2.1022 /_   74.7   0.26385    13.800        3-1     3.6417 /_  104.7   0.26389
1974 1       2.2861 /_  -45.5   0.28694    13.800        1-2     3.9596 /_  -15.5   0.28693
   - 2       2.2857 /_ -165.5   0.28689    13.800        2-3     3.9585 /_ -135.5   0.28685
   - 3       2.2856 /_   74.6   0.28687    13.800        3-1     3.9595 /_  104.5   0.28692
1102 1       2.2834 /_  -45.5   0.28659    13.800        1-2      3.955 /_  -15.5   0.28659
   - 2       2.2832 /_ -165.5   0.28657    13.800        2-3     3.9541 /_ -135.5   0.28653
   - 3        2.283 /_   74.5   0.28655    13.800        3-1     3.9549 /_  104.5   0.28659
2926 1       4.5744 /_  -31.5   0.57414    13.800        1-2      7.923 /_   -1.5   0.57413
   - 2       4.5733 /_ -151.5     0.574    13.800        2-3     7.9202 /_ -121.5   0.57393
   - 3       4.5727 /_   88.5   0.57393    13.800        3-1     7.9213 /_  118.5   0.57401
2649 1       4.5789 /_  -31.9    0.5747    13.800        1-2      7.931 /_   -1.9   0.57471
   - 2       4.5768 /_ -151.9   0.57443    13.800        2-3     7.9262 /_ -121.9   0.57436
   - 3       4.5771 /_   88.1   0.57447    13.800        3-1     7.9285 /_  118.1   0.57453
2226 1       4.5834 /_  -31.9   0.57527    13.800        1-2     7.9391 /_   -1.9   0.57529
   - 2       4.5815 /_ -151.9   0.57503    13.800        2-3     7.9344 /_ -121.9   0.57495
   - 3       4.5816 /_   88.1   0.57504    13.800        3-1     7.9363 /_  118.1    0.5751
930  1       1.7561 /_  -45.4   0.22041    13.800        1-2     3.0416 /_  -15.5   0.22041
   - 2       1.7558 /_ -165.5   0.22037    13.800        2-3     3.0407 /_ -135.5   0.22034
   - 3       1.7557 /_   74.6   0.22036    13.800        3-1     3.0414 /_  104.6   0.22039
1978 1       2.2861 /_  -45.5   0.28693    13.800        1-2     3.9595 /_  -15.5   0.28692
   - 2       2.2857 /_ -165.5   0.28688    13.800        2-3     3.9584 /_ -135.5   0.28684
   - 3       2.2856 /_   74.5   0.28687    13.800        3-1     3.9594 /_  104.5   0.28691
9 .. 1       2.2852 /_  -45.4   0.28681    13.800        1-2     3.9579 /_  -15.5    0.2868
   - 2       2.2846 /_ -165.5   0.28674    13.800        2-3     3.9566 /_ -135.5   0.28671
   - 3       2.2845 /_   74.6   0.28673    13.800        3-1     3.9576 /_  104.6   0.28678
432  1       2.2833 /_  -45.5   0.28658    13.800        1-2     3.9546 /_  -15.5   0.28657
   - 2       2.2827 /_ -165.5    0.2865    13.800        2-3     3.9532 /_ -135.5   0.28647
   - 3       2.2826 /_   74.5   0.28649    13.800        3-1     3.9543 /_  104.5   0.28654
1106 1        2.283 /_  -45.5   0.28654    13.800        1-2     3.9542 /_  -15.5   0.28654
   - 2       2.2828 /_ -165.5   0.28652    13.800        2-3     3.9534 /_ -135.5   0.28648
   - 3       2.2826 /_   74.5   0.28649    13.800        3-1     3.9542 /_  104.5   0.28653
2925 1       4.5719 /_  -31.5   0.57382    13.800        1-2     7.9186 /_   -1.5   0.57381
   - 2       4.5707 /_ -151.5   0.57368    13.800        2-3     7.9158 /_ -121.5   0.57361
   - 3       4.5702 /_   88.5   0.57361    13.800        3-1      7.917 /_  118.5   0.57369
2835 1       4.5788 /_  -31.9   0.57469    13.800        1-2     7.9309 /_   -1.9    0.5747
   - 2       4.5767 /_ -151.9   0.57443    13.800        2-3     7.9261 /_ -121.9   0.57436
   - 3        4.577 /_   88.1   0.57446    13.800        3-1     7.9284 /_  118.1   0.57452
   - 4    0.0030081 /_ -118.3 0.00037755    13.800
2225 1       4.5809 /_  -32.0   0.57495    13.800        1-2     7.9346 /_   -2.0   0.57497
   - 2       4.5789 /_ -152.0    0.5747    13.800        2-3     7.9297 /_ -122.0   0.57462
   - 3       4.5789 /_   88.0   0.57471    13.800        3-1     7.9318 /_  118.0   0.57477
934  1       1.6912 /_  -45.5   0.21226    13.800        1-2     2.9291 /_  -15.5   0.21226
   - 2       1.6909 /_ -165.5   0.21222    13.800        2-3     2.9283 /_ -135.5   0.21219
   - 3       1.6908 /_   74.5   0.21221    13.800        3-1     2.9289 /_  104.5   0.21224
1977 1       2.2855 /_  -45.5   0.28685    13.800        1-2     3.9585 /_  -15.5   0.28685
   - 2       2.2851 /_ -165.5   0.28681    13.800        2-3     3.9574 /_ -135.5   0.28677
   - 3        2.285 /_   74.5    0.2868    13.800        3-1     3.9584 /_  104.5   0.28684
1105 1       2.2804 /_  -45.6   0.28621    13.800        1-2     3.9499 /_  -15.6   0.28622
   - 2       2.2804 /_ -165.6   0.28622    13.800        2-3     3.9492 /_ -135.6   0.28618
   - 3       2.2802 /_   74.5   0.28619    13.800        3-1     3.9499 /_  104.5   0.28622
3029 1       4.5718 /_  -31.5   0.57381    13.800        1-2     7.9185 /_   -1.5    0.5738
   - 2       4.5707 /_ -151.5   0.57367    13.800        2-3     7.9157 /_ -121.5    0.5736
   - 3       4.5701 /_   88.5    0.5736    13.800        3-1     7.9168 /_  118.5   0.57368
   - 4   0.00095176 /_ -161.6 0.00011946    13.800
2224 1         4.58 /_  -32.0   0.57484    13.800        1-2      7.933 /_   -2.0   0.57486
   - 2       4.5779 /_ -152.0   0.57458    13.800        2-3     7.9281 /_ -122.0    0.5745
   - 3        4.578 /_   88.0   0.57459    13.800        3-1     7.9302 /_  118.0   0.57465
933  1       1.2701 /_  -45.7   0.15941    13.800        1-2     2.1998 /_  -15.7   0.15941
   - 2       1.2699 /_ -165.7   0.15938    13.800        2-3     2.1992 /_ -135.7   0.15936
   - 3       1.2698 /_   74.3   0.15937    13.800        3-1     2.1997 /_  104.3    0.1594
1976 1       2.2848 /_  -45.5   0.28677    13.800        1-2     3.9573 /_  -15.6   0.28676
   - 2       2.2844 /_ -165.6   0.28672    13.800        2-3     3.9562 /_ -135.5   0.28668
   - 3       2.2844 /_   74.5   0.28671    13.800        3-1     3.9573 /_  104.5   0.28676
7 .. 1        2.284 /_  -45.5   0.28666    13.800        1-2     3.9558 /_  -15.5   0.28665
   - 2       2.2833 /_ -165.5   0.28658    13.800        2-3     3.9544 /_ -135.5   0.28655
   - 3       2.2833 /_   74.5   0.28658    13.800        3-1     3.9554 /_  104.5   0.28663
431  1       2.2809 /_  -45.5   0.28628    13.800        1-2     3.9504 /_  -15.6   0.28626
   - 2       2.2801 /_ -165.6   0.28618    13.800        2-3     3.9488 /_ -135.5   0.28615
   - 3       2.2801 /_   74.5   0.28618    13.800        3-1       3.95 /_  104.5   0.28623
1104 1       2.2774 /_  -45.6   0.28584    13.800        1-2     3.9449 /_  -15.6   0.28586
   - 2       2.2777 /_ -165.6   0.28587    13.800        2-3     3.9445 /_ -135.6   0.28583
   - 3       2.2774 /_   74.4   0.28584    13.800        3-1      3.945 /_  104.4   0.28587
2833 1       4.5787 /_  -31.9   0.57468    13.800        1-2     7.9308 /_   -1.9   0.57469
   - 2       4.5766 /_ -151.9   0.57442    13.800        2-3      7.926 /_ -121.9   0.57435
   - 3       4.5769 /_   88.1   0.57446    13.800        3-1     7.9283 /_  118.1   0.57451
   - 4     0.003008 /_ -118.3 0.00037754    13.800
2228 1       4.5788 /_  -32.0   0.57469    13.800        1-2      7.931 /_   -2.1   0.57471
   - 2       4.5767 /_ -152.1   0.57443    13.800        2-3      7.926 /_ -122.1   0.57435
   - 3       4.5768 /_   88.0   0.57444    13.800        3-1     7.9281 /_  118.0    0.5745
932  1      0.79731 /_  -46.2   0.10007    13.800        1-2     1.3809 /_  -16.2   0.10007
   - 2      0.79717 /_ -166.2   0.10005    13.800        2-3     1.3805 /_ -136.2   0.10004
   - 3      0.79712 /_   73.8   0.10005    13.800        3-1     1.3809 /_  103.8   0.10006
1980 1       2.2845 /_  -45.6   0.28674    13.800        1-2     3.9568 /_  -15.6   0.28673
   - 2       2.2842 /_ -165.6   0.28669    13.800        2-3     3.9558 /_ -135.6   0.28665
   - 3       2.2841 /_   74.5   0.28669    13.800        3-1     3.9569 /_  104.5   0.28673
1108 1       2.2764 /_  -45.6   0.28572    13.800        1-2     3.9431 /_  -15.6   0.28573
   - 2       2.2767 /_ -165.6   0.28575    13.800        2-3     3.9428 /_ -135.6   0.28571
   - 3       2.2764 /_   74.4   0.28571    13.800        3-1     3.9432 /_  104.4   0.28574
3034 1       4.5718 /_  -31.5   0.57381    13.800        1-2     7.9184 /_   -1.5    0.5738
   - 2       4.5706 /_ -151.5   0.57366    13.800        2-3     7.9155 /_ -121.5   0.57359
   - 3       4.5701 /_   88.5   0.57359    13.800        3-1     7.9167 /_  118.5   0.57367
   - 4   0.00095173 /_ -161.6 0.00011945    13.800
2832 1       4.5782 /_  -31.9   0.57462    13.800        1-2     7.9298 /_   -1.9   0.57463
   - 2       4.5761 /_ -151.9   0.57435    13.800        2-3      7.925 /_ -121.9   0.57428
   - 3       4.5764 /_   88.1   0.57439    13.800        3-1     7.9274 /_  118.1   0.57445
2823 1       4.5787 /_  -31.9   0.57468    13.800        1-2     7.9308 /_   -1.9   0.57469
   - 2       4.5766 /_ -151.9   0.57442    13.800        2-3      7.926 /_ -121.9   0.57435
   - 3       4.5769 /_   88.1   0.57446    13.800        3-1     7.9283 /_  118.1   0.57451
   - 4     0.003008 /_ -118.3 0.00037754    13.800
2285 1       4.5788 /_  -32.0   0.57469    13.800        1-2     7.9309 /_   -2.1   0.57471
   - 2       4.5767 /_ -152.1   0.57442    13.800        2-3     7.9259 /_ -122.1   0.57434
   - 3       4.5768 /_   87.9   0.57443    13.800        3-1      7.928 /_  118.0   0.57449
   - 4     0.003258 /_ -124.7 0.00040891    13.800
936  1      0.63157 /_  -46.6  0.079269    13.800        1-2     1.0939 /_  -16.6  0.079267
   - 2      0.63146 /_ -166.6  0.079255    13.800        2-3     1.0936 /_ -136.6  0.079244
   - 3      0.63142 /_   73.4   0.07925    13.800        3-1     1.0938 /_  103.4  0.079262
1979 1        2.284 /_  -45.6   0.28667    13.800        1-2     3.9559 /_  -15.6   0.28666
   - 2       2.2837 /_ -165.6   0.28663    13.800        2-3     3.9549 /_ -135.6   0.28659
   - 3       2.2836 /_   74.4   0.28662    13.800        3-1     3.9561 /_  104.4   0.28667
5 .. 1       2.2826 /_  -45.5   0.28649    13.800        1-2     3.9534 /_  -15.5   0.28648
   - 2       2.2819 /_ -165.5    0.2864    13.800        2-3     3.9519 /_ -135.5   0.28637
   - 3       2.2819 /_   74.5    0.2864    13.800        3-1      3.953 /_  104.5   0.28645
428  1       2.2781 /_  -45.6   0.28593    13.800        1-2     3.9456 /_  -15.6   0.28591
   - 2       2.2773 /_ -165.6   0.28582    13.800        2-3     3.9439 /_ -135.6   0.28579
...
